Version 4.1
SHEET 1 1424 680
WIRE -32 -64 -144 -64
WIRE 32 -64 -32 -64
WIRE 160 -64 32 -64
WIRE 320 -64 240 -64
WIRE 352 -64 320 -64
WIRE 368 -64 352 -64
WIRE 512 -64 464 -64
WIRE 640 -64 512 -64
WIRE 656 -64 640 -64
WIRE 832 -64 816 -64
WIRE -32 -32 -32 -64
WIRE 352 -16 352 -64
WIRE 832 -16 832 -64
WIRE 640 32 640 -64
WIRE -32 64 -32 48
WIRE 352 96 352 64
WIRE 384 96 384 -16
WIRE 384 96 352 96
WIRE 416 96 384 96
WIRE 512 96 512 -64
WIRE 512 96 480 96
WIRE 544 96 512 96
WIRE 832 96 832 64
WIRE -144 144 -144 -64
WIRE -112 144 -144 144
WIRE -80 144 -112 144
WIRE 240 144 208 144
WIRE 272 144 240 144
WIRE 288 144 272 144
WIRE 640 144 640 112
WIRE 640 144 608 144
WIRE 240 176 240 144
WIRE 640 176 640 144
WIRE 448 192 352 192
WIRE 544 192 448 192
WIRE 448 208 448 192
WIRE -144 240 -144 208
WIRE -112 240 -112 144
WIRE -80 240 -112 240
WIRE 240 272 240 240
WIRE 640 272 640 256
WIRE 448 304 448 288
WIRE 64 320 64 304
FLAG -144 240 0
FLAG 240 272 0
FLAG 448 304 0
FLAG 640 272 0
FLAG -32 64 0
FLAG 656 -64 Vout
IOPIN 656 -64 Out
FLAG 64 320 0
FLAG 32 -64 Vin
FLAG 816 -64 Vout
IOPIN 816 -64 Out
FLAG 832 96 0
FLAG 272 144 Vldo
FLAG 320 -64 Vs
SYMBOL npn 288 96 R0
SYMATTR InstName Q1
SYMATTR Value 2N2222
SYMBOL pmos 464 -16 M270
SYMATTR InstName M1
SYMATTR Value irf4905
SYMATTR Prefix X
SYMBOL npn 608 96 M0
SYMATTR InstName Q2
SYMATTR Value 2N2222
SYMBOL cap 480 80 R90
WINDOW 0 0 32 VBottom 2
WINDOW 3 32 32 VTop 2
SYMATTR InstName C1
SYMATTR Value 1µ
SYMATTR SpiceLine V=20
SYMBOL cap 224 176 R0
SYMATTR InstName C2
SYMATTR Value 0.1
SYMATTR SpiceLine V=20
SYMBOL cap -160 144 R0
SYMATTR InstName C3
SYMATTR Value 0.1µ
SYMATTR SpiceLine V=20
SYMBOL voltage -32 -48 R0
WINDOW 3 24 44 Left 2
WINDOW 123 0 0 Left 0
WINDOW 39 24 72 Left 2
SYMATTR Value 12
SYMATTR SpiceLine Rser=0.05
SYMATTR InstName V1
SYMBOL res 368 -32 M0
SYMATTR InstName R1
SYMATTR Value 100k
SYMATTR SpiceLine tol=1 pwr=0.125
SYMBOL res 432 192 R0
SYMATTR InstName R2
SYMATTR Value 10k
SYMATTR SpiceLine tol=1 pwr=0.125
SYMBOL res 624 16 R0
SYMATTR InstName R3
SYMATTR Value 30k
SYMATTR SpiceLine tol=1 pwr=0.125
SYMBOL res 624 160 R0
SYMATTR InstName R4
SYMATTR Value 22k
SYMATTR SpiceLine tol=1 pwr=0.125
SYMBOL PowerProducts\\LT1121-5 64 192 R0
SYMATTR InstName U2
SYMBOL res 816 -32 R0
SYMATTR InstName R5
SYMATTR Value 6
SYMATTR SpiceLine tol=1 pwr=50
SYMBOL res 256 -80 R90
WINDOW 0 0 56 VBottom 2
WINDOW 3 32 56 VTop 2
SYMATTR InstName R6
SYMATTR Value 0.05
SYMATTR SpiceLine tol=1 pwr=100
TEXT 1096 -192 Left 0 !.SUBCKT irf4905 1 2 3\n**************************************\n*      Model Generated by MODPEX     *\n*Copyright(c) Symmetry Design Systems*\n*         All Rights Reserved        *\n*    UNPUBLISHED LICENSED SOFTWARE   *\n*   Contains Proprietary Information *\n*      Which is The Property of      *\n*     SYMMETRY OR ITS LICENSORS      *\n*Commercial Use or Resale Restricted *\n*   by Symmetry License Agreement    *\n**************************************\n* Model generated on Jun 19, 96\n* Model format: SPICE3\n* Symmetry POWER MOS Model (Version 1.0)\n* External Node Designations\n* Node 1 -> Drain\n* Node 2 -> Gate\n* Node 3 -> Source\nM1 9 7 8 8 MM L=100u W=100u\n* Default values used in MM:\n* The voltage-dependent capacitances are\n* not included. Other default values are:\n*   RS=0 RD=0 LD=0 CBD=0 CBS=0 CGBO=0\n.MODEL MM PMOS LEVEL=1 IS=1e-32\n+VTO=-3.53713 LAMBDA=0.00549383 KP=23.3701\n+CGSO=2.84439e-05 CGDO=1e-11\nRS 8 3 0.0101265\nD1 1 3 MD\n.MODEL MD D IS=1.29014e-08 RS=0.00297795 N=1.46717 BV=55\n+IBV=0.00025 EG=1.2 XTI=4 TT=0\n+CJO=3.56968e-09 VJ=1.17553 M=0.500933 FC=0.5\nRDS 3 1 2.2e+06\nRD 9 1 0.0001\nRG 2 7 6\nD2 5 4 MD1\n* Default values used in MD1:\n*   RS=0 EG=1.11 XTI=3.0 TT=0\n*   BV=infinite IBV=1mA\n.MODEL MD1 D IS=1e-32 N=50\n+CJO=4.83772e-09 VJ=0.625334 M=0.543532 FC=1e-08\nD3 5 0 MD2\n* Default values used in MD2:\n*   EG=1.11 XTI=3.0 TT=0 CJO=0\n*   BV=infinite IBV=1mA\n.MODEL MD2 D IS=1e-10 N=0.4 RS=3e-06\nRL 5 10 1\nFI2 7 9 VFI2 -1\nVFI2 4 0 0\nEV16 10 0 9 7 1\nCAP 11 10 6.08035e-09\nFI1 7 9 VFI1 -1\nVFI1 11 6 0\nRCAP 6 10 1\nD4 6 0 MD3\n* Default values used in MD3:\n*   EG=1.11 XTI=3.0 TT=0 CJO=0\n*   RS=0 BV=infinite IBV=1mA\n.MODEL MD3 D IS=1e-10 N=0.4\n.ENDS
TEXT 16 64 Left 2 !.tran 0 0.5 0
TEXT 704 152 Left 2 ;Vldo = Vout * (R4 / (R3 + R4))\nVout = Vldo / (R4 / (R3 + R4))\n11.8V = 5V / ( 22k / (30k + 22k))\n8.85V = 5V / (39k / (30k + 39k))
TEXT 256 336 Left 2 ;References:\nhttps://www.gqrp.com/limiter.jpg\nhttp://www.nd6t.com/qrp/VLDO.htm
